tests/main_n_sa/reference/launch/two_windings_transformer_contingency/outputIIDM.xml
<?xml version="1.0" encoding="UTF-8"?>
<iidm:network xmlns:iidm="http://www.powsybl.org/schema/iidm/1_4" xmlns:crc="http://www.powsybl.org/schema/iidm/ext/coordinated_reactive_control/1_0" id="urn:uuid:a97cec76-42cc-bf53-2269-4f5abcce7244" caseDate="2030-01-02T09:00:00+00:00" forecastDistance="7963018" sourceFormat="CGMES">
    <iidm:property name="CGMESModelDetail" value="node-breaker"/>
    <iidm:substation id="_047c929a-c766-11e1-8775-005056c00008" name="Godrics Hollow" country="GB" geographicalTags="_0472a781-c766-11e1-8775-005056c00008">
        <iidm:voltageLevel id="_0460f448-c766-11e1-8775-005056c00008" name="GOD132KV" nominalV="132" topologyKind="NODE_BREAKER">
            <iidm:nodeBreakerTopology>
                <iidm:busbarSection id="_1d9c9c35-b7b6-432a-b3ed-3d747111008c" name="BUSBAR113" node="7">
                    <iidm:alias>_ea85bc90-6724-4580-b1e9-bc7626750460</iidm:alias>
                </iidm:busbarSection>
                <iidm:switch id="_042c4356-75cf-4e9b-891d-aa5d10db05cf" name="BREAKER305" kind="BREAKER" retained="true" open="false" node1="9" node2="10">
                    <iidm:alias>_010e4f03-e0d7-4cb8-bac6-98ac3f8de025</iidm:alias>
                    <iidm:alias>_208fa1ec-4809-4807-9ec4-23588a1fb467</iidm:alias>
                </iidm:switch>
                <iidm:switch id="_b660b46b-f89e-44ba-a2f2-5f7ce2e38699" name="BREAKER346" kind="BREAKER" retained="true" open="false" node1="11" node2="12">
                    <iidm:alias>_5f5a225e-9d00-494d-90ec-44352d98d4e6</iidm:alias>
                    <iidm:alias>_7eee8ba0-c290-4cc6-9b99-cc978ad4a55f</iidm:alias>
                </iidm:switch>
                <iidm:switch id="_1e19b554-54eb-4aab-a6d2-7a770a88753a" name="DISCONNECTOR609" kind="DISCONNECTOR" retained="false" open="false" node1="13" node2="14">
                    <iidm:alias>_736eee20-3b0c-44b1-b424-ab399710d6c6</iidm:alias>
                    <iidm:alias>_ed8ba83b-973a-43bc-a272-e96e8cdf3621</iidm:alias>
                </iidm:switch>
                <iidm:switch id="_523f1059-be27-4b98-818c-62a820e334d0" name="DISCONNECTOR610" kind="DISCONNECTOR" retained="false" open="false" node1="15" node2="16">
                    <iidm:alias>_a29f47d7-80e9-4691-8ada-76fc5c2f6bd3</iidm:alias>
                    <iidm:alias>_f657ecda-9d23-4a5a-9c0b-4fdf40cacee5</iidm:alias>
                </iidm:switch>
                <iidm:switch id="_d381ddfa-6e11-4efa-b898-c5d0ecdda246" name="DISCONNECTOR691" kind="DISCONNECTOR" retained="false" open="false" node1="17" node2="18">
                    <iidm:alias>_a14bcea2-8848-4ed2-8671-6e9c1db7b38f</iidm:alias>
                    <iidm:alias>_ac2bbd87-5d42-4fff-967c-30d4052d4a0c</iidm:alias>
                </iidm:switch>
                <iidm:switch id="_ba7b635c-3031-40ea-8907-63881e80b42c" name="DISCONNECTOR692" kind="DISCONNECTOR" retained="false" open="false" node1="19" node2="20">
                    <iidm:alias>_bea273f1-1e21-476d-b0d0-92dd6cb9a2d4</iidm:alias>
                    <iidm:alias>_c94e6b68-da6c-43d1-94fd-09ad60c74134</iidm:alias>
                </iidm:switch>
                <iidm:switch id="internalAsBreaker" name="MYBREAKER" kind="BREAKER" retained="true" open="false" node1="8" node2="0"/>
                <iidm:internalConnection node1="7" node2="0"/>
                <iidm:internalConnection node1="9" node2="1"/>
                <iidm:internalConnection node1="10" node2="2"/>
                <iidm:internalConnection node1="11" node2="4"/>
                <iidm:internalConnection node1="12" node2="5"/>
                <iidm:internalConnection node1="13" node2="0"/>
                <iidm:internalConnection node1="14" node2="1"/>
                <iidm:internalConnection node1="15" node2="2"/>
                <iidm:internalConnection node1="16" node2="3"/>
                <iidm:internalConnection node1="17" node2="0"/>
                <iidm:internalConnection node1="18" node2="4"/>
                <iidm:internalConnection node1="19" node2="5"/>
                <iidm:internalConnection node1="20" node2="6"/>
                <iidm:internalConnection node1="21" node2="3"/>
                <iidm:internalConnection node1="22" node2="6"/>
                <iidm:bus v="124.33201905017351" angle="-3.8326620414557726" nodes="0,1,2,3,4,5,6,7,8,9,10,11,12,13,14,15,16,17,18,19,20,21,22"/>
            </iidm:nodeBreakerTopology>
            <iidm:load id="_047abdd7-c766-11e1-8775-005056c00008" name="Jay LD" loadType="UNDEFINED" p0="14" q0="8" node="8" p="14.000000000000002" q="8">
                <iidm:alias>_04590500-c766-11e1-8775-005056c00008</iidm:alias>
            </iidm:load>
        </iidm:voltageLevel>
    </iidm:substation>
    <iidm:substation id="_04819ba1-c766-11e1-8775-005056c00008" name="Nurmengard" country="GB" geographicalTags="_0472a781-c766-11e1-8775-005056c00008">
        <iidm:voltageLevel id="_0476c639-c766-11e1-8775-005056c00008" name="NUR132KV" nominalV="132" topologyKind="NODE_BREAKER">
            <iidm:nodeBreakerTopology>
                <iidm:busbarSection id="_40074ec7-4e0a-4071-b12f-ac96300f6bdb" name="BUSBAR77" node="13">
                    <iidm:alias>_d660b3a2-36f4-46af-965e-9ccf63921b99</iidm:alias>
                </iidm:busbarSection>
                <iidm:switch id="_51c81d09-778d-4eb7-a792-b13cd11990e8" name="BREAKER112" kind="BREAKER" retained="false" open="false" node1="16" node2="17">
                    <iidm:alias>_030fd25e-8a7c-4067-956b-95de2e43ca1b</iidm:alias>
                    <iidm:alias>_8953b98f-b6ac-4fd9-b382-280dd9f83848</iidm:alias>
                </iidm:switch>
                <iidm:switch id="_bd353fe8-a348-4ac3-93ae-173919e4b699" name="BREAKER125" kind="BREAKER" retained="false" open="false" node1="18" node2="19">
                    <iidm:alias>_70f055a8-4a29-4f1d-afe4-0a6255d8fbef</iidm:alias>
                    <iidm:alias>_b0262344-289d-4b5c-89fe-a2ed32b4ca12</iidm:alias>
                </iidm:switch>
                <iidm:switch id="_233d686d-90e4-49df-91ed-b5ee6fbd0cff" name="BREAKER209" kind="BREAKER" retained="false" open="false" node1="20" node2="21">
                    <iidm:alias>_598db54f-b81f-40f4-84b3-d92f72daaeb4</iidm:alias>
                    <iidm:alias>_a8fafbfd-5596-4044-8d74-0992f06c8c79</iidm:alias>
                </iidm:switch>
                <iidm:switch id="_2bd46877-a632-4ddd-b880-1940461fb45d" name="BREAKER272" kind="BREAKER" retained="false" open="false" node1="22" node2="23">
                    <iidm:alias>_02f193ba-e746-4eda-ad79-9999ef27fe47</iidm:alias>
                    <iidm:alias>_20f43d84-963d-41ca-8548-86be349e8471</iidm:alias>
                </iidm:switch>
                <iidm:switch id="_de006bd6-6239-4d9b-b431-975fc883ef69" name="DISCONNECTOR223" kind="DISCONNECTOR" retained="false" open="false" node1="24" node2="25">
                    <iidm:alias>_06ef8f5f-ced4-44b1-89fe-636fde5295f8</iidm:alias>
                    <iidm:alias>_a2409fcc-0d8a-491c-a8ad-caf94d44c866</iidm:alias>
                </iidm:switch>
                <iidm:switch id="_799401b5-7bad-4628-936c-272a47afe701" name="DISCONNECTOR224" kind="DISCONNECTOR" retained="false" open="false" node1="26" node2="27">
                    <iidm:alias>_b30e5c53-c685-4975-9ff7-395f24f94933</iidm:alias>
                    <iidm:alias>_eea0f6ae-4a78-41b2-8fc1-9b24e9bb1b2e</iidm:alias>
                </iidm:switch>
                <iidm:switch id="_7c85bb9e-b82c-4148-9151-33ae459b1ea5" name="DISCONNECTOR249" kind="DISCONNECTOR" retained="false" open="false" node1="28" node2="29">
                    <iidm:alias>_16a4890e-2299-43aa-85aa-60d568a6f55b</iidm:alias>
                    <iidm:alias>_31d058e1-7999-4900-8304-e699855178b4</iidm:alias>
                </iidm:switch>
                <iidm:switch id="_02aa59e2-99d3-4957-b768-41f796d55d31" name="DISCONNECTOR250" kind="DISCONNECTOR" retained="false" open="false" node1="30" node2="31">
                    <iidm:alias>_6b1c55cf-a01c-4f0c-a008-0f4c3f91f1b1</iidm:alias>
                    <iidm:alias>_f6ea1e1a-dbe8-4939-b05c-809b216ad452</iidm:alias>
                </iidm:switch>
                <iidm:switch id="_e1a973e3-96be-4a6f-a7ec-2f2862e2ffe9" name="DISCONNECTOR417" kind="DISCONNECTOR" retained="false" open="false" node1="32" node2="33">
                    <iidm:alias>_53fe31c7-898e-427a-866d-f9d639564156</iidm:alias>
                    <iidm:alias>_aff9e12b-a0cc-40ff-ad4c-21354b0de88f</iidm:alias>
                </iidm:switch>
                <iidm:switch id="_1d98bf9c-8243-4f7b-84eb-ec54a4b21b90" name="DISCONNECTOR418" kind="DISCONNECTOR" retained="false" open="false" node1="34" node2="35">
                    <iidm:alias>_e61eb85c-b7b0-4336-8e32-6a5c2a7145a2</iidm:alias>
                    <iidm:alias>_eee51978-7250-423f-9dbe-827906d8c019</iidm:alias>
                </iidm:switch>
                <iidm:switch id="_9749f3a4-64c5-482c-87c6-37322d113948" name="DISCONNECTOR543" kind="DISCONNECTOR" retained="false" open="false" node1="36" node2="37">
                    <iidm:alias>_580de0e9-f8c1-4969-811f-46712414524e</iidm:alias>
                    <iidm:alias>_816a0247-2a88-43d5-8de0-d4709dbffe98</iidm:alias>
                </iidm:switch>
                <iidm:switch id="_91e9275d-053a-4d88-9d20-c094f2ccc85b" name="DISCONNECTOR544" kind="DISCONNECTOR" retained="false" open="false" node1="38" node2="39">
                    <iidm:alias>_3b569c39-9301-424f-959e-c45e0fd99f26</iidm:alias>
                    <iidm:alias>_69f112ef-9f4c-42f3-9ac8-472698d68257</iidm:alias>
                </iidm:switch>
                <iidm:internalConnection node1="13" node2="0"/>
                <iidm:internalConnection node1="14" node2="0"/>
                <iidm:internalConnection node1="15" node2="0"/>
                <iidm:internalConnection node1="16" node2="1"/>
                <iidm:internalConnection node1="17" node2="2"/>
                <iidm:internalConnection node1="18" node2="4"/>
                <iidm:internalConnection node1="19" node2="5"/>
                <iidm:internalConnection node1="20" node2="7"/>
                <iidm:internalConnection node1="21" node2="8"/>
                <iidm:internalConnection node1="22" node2="10"/>
                <iidm:internalConnection node1="23" node2="11"/>
                <iidm:internalConnection node1="24" node2="0"/>
                <iidm:internalConnection node1="25" node2="1"/>
                <iidm:internalConnection node1="26" node2="2"/>
                <iidm:internalConnection node1="27" node2="3"/>
                <iidm:internalConnection node1="28" node2="0"/>
                <iidm:internalConnection node1="29" node2="4"/>
                <iidm:internalConnection node1="30" node2="5"/>
                <iidm:internalConnection node1="31" node2="6"/>
                <iidm:internalConnection node1="32" node2="0"/>
                <iidm:internalConnection node1="33" node2="7"/>
                <iidm:internalConnection node1="34" node2="8"/>
                <iidm:internalConnection node1="35" node2="9"/>
                <iidm:internalConnection node1="36" node2="0"/>
                <iidm:internalConnection node1="37" node2="10"/>
                <iidm:internalConnection node1="38" node2="11"/>
                <iidm:internalConnection node1="39" node2="12"/>
                <iidm:internalConnection node1="40" node2="3"/>
                <iidm:internalConnection node1="41" node2="6"/>
                <iidm:internalConnection node1="42" node2="9"/>
                <iidm:internalConnection node1="43" node2="12"/>
                <iidm:bus v="127.76830367934792" angle="-0.49298549243148082" nodes="0,1,2,3,4,5,6,7,8,9,10,11,12,13,14,15,16,17,18,19,20,21,22,23,24,25,26,27,28,29,30,31,32,33,34,35,36,37,38,39,40,41,42,43"/>
            </iidm:nodeBreakerTopology>
            <iidm:load id="_045b00d5-c766-11e1-8775-005056c00008" name="Madison LD" loadType="UNDEFINED" p0="62" q0="13" node="14" p="62" q="13">
                <iidm:alias>_045b27e3-c766-11e1-8775-005056c00008</iidm:alias>
            </iidm:load>
            <iidm:load id="_04689566-c766-11e1-8775-005056c00008" name="Madison NegG LD" loadType="UNDEFINED" p0="9" q0="0" node="15" p="9" q="0">
                <iidm:alias>_04765100-c766-11e1-8775-005056c00008</iidm:alias>
            </iidm:load>
        </iidm:voltageLevel>
    </iidm:substation>
    <iidm:substation id="_04542302-c766-11e1-8775-005056c00008" name="Gringotts" country="GB" geographicalTags="_0472a781-c766-11e1-8775-005056c00008">
        <iidm:voltageLevel id="_0450eeb4-c766-11e1-8775-005056c00008" name="GRI132KV" nominalV="132" topologyKind="NODE_BREAKER">
            <iidm:nodeBreakerTopology>
                <iidm:busbarSection id="_00a4a6bb-334e-44a7-b49e-eed5705a385f" name="BUSBAR57" node="19">
                    <iidm:alias>_3c221c69-bd4b-47e5-a647-7f1159e00af0</iidm:alias>
                </iidm:busbarSection>
                <iidm:switch id="_8819d649-f8e2-4e89-a972-a50bc9c9fcff" name="BREAKER73" kind="BREAKER" retained="false" open="false" node1="22" node2="23">
                    <iidm:alias>_01cb8d57-9bad-4964-88e1-b30f590fb4c5</iidm:alias>
                    <iidm:alias>_6f84a5f8-b9a7-4872-9053-b1ef88e2d05d</iidm:alias>
                </iidm:switch>
                <iidm:switch id="_4b0bee1d-f5c8-41f8-a196-e0055949116f" name="BREAKER131" kind="BREAKER" retained="false" open="false" node1="24" node2="25">
                    <iidm:alias>_1d516a33-6095-49c5-91b1-7897d6d4af68</iidm:alias>
                    <iidm:alias>_2149a1d5-743e-4433-b55d-4ea03cb9d96d</iidm:alias>
                </iidm:switch>
                <iidm:switch id="_05372493-820b-4768-b6b3-b06cf4c88040" name="BREAKER190" kind="BREAKER" retained="false" open="false" node1="26" node2="27">
                    <iidm:alias>_2e0649e8-ae5f-4146-b539-55df36ed26f5</iidm:alias>
                    <iidm:alias>_714070e7-1af3-4863-8885-8920f896f2f4</iidm:alias>
                </iidm:switch>
                <iidm:switch id="_fe878612-3cd3-4f69-8d54-6f4fd236cda8" name="BREAKER295" kind="BREAKER" retained="false" open="false" node1="28" node2="29">
                    <iidm:alias>_486d1e9b-549a-42df-ad67-29d2016f4571</iidm:alias>
                    <iidm:alias>_dcd0ebfe-3623-4fc3-89df-ad719955b5f2</iidm:alias>
                </iidm:switch>
                <iidm:switch id="_3fa8af05-471c-4f84-9804-2364ab4d0142" name="BREAKER323" kind="BREAKER" retained="false" open="false" node1="30" node2="31">
                    <iidm:alias>_33f8e378-97b4-4f9d-9b3f-be0fa08c737b</iidm:alias>
                    <iidm:alias>_9226ad6a-e864-4c79-a107-ac6669389ece</iidm:alias>
                </iidm:switch>
                <iidm:switch id="_009bd855-5a73-40a8-b2db-4147028f51e1" name="BREAKER324" kind="BREAKER" retained="false" open="false" node1="32" node2="33">
                    <iidm:alias>_9224a58f-f44c-4dad-95f9-d57b2f19fdfb</iidm:alias>
                    <iidm:alias>_d617fbd2-7202-4dd8-8747-bcef9c2c5304</iidm:alias>
                </iidm:switch>
                <iidm:switch id="_d5a83883-e82c-4672-8b1b-1f636ef7e8e9" name="DISCONNECTOR145" kind="DISCONNECTOR" retained="false" open="false" node1="34" node2="35">
                    <iidm:alias>_2ea96345-5a97-4a05-b4b2-310f4d0afd29</iidm:alias>
                    <iidm:alias>_3f53e5a2-d64a-4f0f-8c2a-a443eb46ca6a</iidm:alias>
                </iidm:switch>
                <iidm:switch id="_a74a4aec-0927-4239-9575-0cb091400067" name="DISCONNECTOR146" kind="DISCONNECTOR" retained="false" open="false" node1="36" node2="37">
                    <iidm:alias>_e7a1d0c9-9b78-4278-af7a-b2b1231cad51</iidm:alias>
                    <iidm:alias>_ee9adf37-e0a5-4e76-9283-7f1724ad6853</iidm:alias>
                </iidm:switch>
                <iidm:switch id="_a8b462b4-2e7e-4314-b5c7-a982f303dde4" name="DISCONNECTOR261" kind="DISCONNECTOR" retained="false" open="false" node1="38" node2="39">
                    <iidm:alias>_bf6cbd2f-5987-4ebc-b776-19232cd670d7</iidm:alias>
                    <iidm:alias>_ecd98a2f-c81b-4ba8-80dd-c5e870ae5a8e</iidm:alias>
                </iidm:switch>
                <iidm:switch id="_fd94ebd3-d19e-4a18-9765-6701c33c17b8" name="DISCONNECTOR262" kind="DISCONNECTOR" retained="false" open="false" node1="40" node2="41">
                    <iidm:alias>_2166479e-4319-434c-b484-21ef1be759eb</iidm:alias>
                    <iidm:alias>_34608c0b-a18b-441e-9131-bd56073e45d7</iidm:alias>
                </iidm:switch>
                <iidm:switch id="_e64818e2-9253-4d51-ae0c-81d112e2cd5e" name="DISCONNECTOR379" kind="DISCONNECTOR" retained="false" open="false" node1="42" node2="43">
                    <iidm:alias>_4838ab73-e852-4a4f-8e14-d36cc6dde894</iidm:alias>
                    <iidm:alias>_c3a36588-a846-4a37-b181-afe3af3cf915</iidm:alias>
                </iidm:switch>
                <iidm:switch id="_9f829759-3787-4e7b-9c49-51fb44f490de" name="DISCONNECTOR380" kind="DISCONNECTOR" retained="false" open="false" node1="44" node2="45">
                    <iidm:alias>_dbb7f413-9cbd-468a-b57c-023e980826b1</iidm:alias>
                    <iidm:alias>_f6586012-dd0f-4349-81ef-057a9818e91f</iidm:alias>
                </iidm:switch>
                <iidm:switch id="_c3d8d60b-befc-4d71-a319-22ba6e25bb74" name="DISCONNECTOR589" kind="DISCONNECTOR" retained="false" open="false" node1="46" node2="47">
                    <iidm:alias>_8b1d980b-aaf8-4ee7-b7b1-bbce95a7748e</iidm:alias>
                    <iidm:alias>_bc441fb3-f4a0-4696-9076-82679a508d59</iidm:alias>
                </iidm:switch>
                <iidm:switch id="_24f3e454-8e14-4307-af4c-b8767213f69f" name="DISCONNECTOR590" kind="DISCONNECTOR" retained="false" open="false" node1="48" node2="49">
                    <iidm:alias>_c57189dd-499b-42a1-b6fb-40bc90d3a310</iidm:alias>
                    <iidm:alias>_d4446022-9134-45c6-bb58-b7a27696b416</iidm:alias>
                </iidm:switch>
                <iidm:switch id="_0147f1f9-332e-4e9d-a8d9-e49d4605f776" name="DISCONNECTOR645" kind="DISCONNECTOR" retained="false" open="false" node1="50" node2="51">
                    <iidm:alias>_1768cfd7-5909-4887-8b25-fc3e38b59dba</iidm:alias>
                    <iidm:alias>_866002ce-f7f8-46ce-921d-f83f33ee8d46</iidm:alias>
                </iidm:switch>
                <iidm:switch id="_08dbcd9f-0cb1-478b-9d54-9251d09fd380" name="DISCONNECTOR646" kind="DISCONNECTOR" retained="false" open="false" node1="52" node2="53">
                    <iidm:alias>_6abb7518-e189-477e-bebd-3b47fbf2925f</iidm:alias>
                    <iidm:alias>_c6c00c6b-4fb8-42b9-aa43-be4aedf68d8f</iidm:alias>
                </iidm:switch>
                <iidm:switch id="_b177b6cc-2918-4ee8-a5f2-bd619448a2ce" name="DISCONNECTOR647" kind="DISCONNECTOR" retained="false" open="false" node1="54" node2="55">
                    <iidm:alias>_395ebb43-da61-4761-9bd9-015b17860fc5</iidm:alias>
                    <iidm:alias>_c167ce0a-7228-4516-973a-d0267c640bbf</iidm:alias>
                </iidm:switch>
                <iidm:switch id="_39552eb2-2347-493b-a342-36112dd61761" name="DISCONNECTOR648" kind="DISCONNECTOR" retained="false" open="false" node1="56" node2="57">
                    <iidm:alias>_3b667f9d-2ac9-4b00-b8ec-120472c203a4</iidm:alias>
                    <iidm:alias>_ca73dc61-46db-48cd-b6ac-020490792c8b</iidm:alias>
                </iidm:switch>
                <iidm:switch id="InternalAsBreaker" name="MYBREAKER" kind="BREAKER" retained="true" open="false" node1="21" node2="0"/>
                <iidm:internalConnection node1="19" node2="0"/>
                <iidm:internalConnection node1="20" node2="0"/>
                <iidm:internalConnection node1="22" node2="1"/>
                <iidm:internalConnection node1="23" node2="2"/>
                <iidm:internalConnection node1="24" node2="4"/>
                <iidm:internalConnection node1="25" node2="5"/>
                <iidm:internalConnection node1="26" node2="7"/>
                <iidm:internalConnection node1="27" node2="8"/>
                <iidm:internalConnection node1="28" node2="10"/>
                <iidm:internalConnection node1="29" node2="11"/>
                <iidm:internalConnection node1="30" node2="13"/>
                <iidm:internalConnection node1="31" node2="14"/>
                <iidm:internalConnection node1="32" node2="16"/>
                <iidm:internalConnection node1="33" node2="17"/>
                <iidm:internalConnection node1="34" node2="0"/>
                <iidm:internalConnection node1="35" node2="1"/>
                <iidm:internalConnection node1="36" node2="2"/>
                <iidm:internalConnection node1="37" node2="3"/>
                <iidm:internalConnection node1="38" node2="0"/>
                <iidm:internalConnection node1="39" node2="4"/>
                <iidm:internalConnection node1="40" node2="5"/>
                <iidm:internalConnection node1="41" node2="6"/>
                <iidm:internalConnection node1="42" node2="0"/>
                <iidm:internalConnection node1="43" node2="7"/>
                <iidm:internalConnection node1="44" node2="8"/>
                <iidm:internalConnection node1="45" node2="9"/>
                <iidm:internalConnection node1="46" node2="0"/>
                <iidm:internalConnection node1="47" node2="10"/>
                <iidm:internalConnection node1="48" node2="11"/>
                <iidm:internalConnection node1="49" node2="12"/>
                <iidm:internalConnection node1="50" node2="0"/>
                <iidm:internalConnection node1="51" node2="13"/>
                <iidm:internalConnection node1="52" node2="14"/>
                <iidm:internalConnection node1="53" node2="15"/>
                <iidm:internalConnection node1="54" node2="0"/>
                <iidm:internalConnection node1="55" node2="16"/>
                <iidm:internalConnection node1="56" node2="17"/>
                <iidm:internalConnection node1="57" node2="18"/>
                <iidm:internalConnection node1="58" node2="3"/>
                <iidm:internalConnection node1="59" node2="6"/>
                <iidm:internalConnection node1="60" node2="9"/>
                <iidm:internalConnection node1="61" node2="12"/>
                <iidm:internalConnection node1="62" node2="15"/>
                <iidm:internalConnection node1="63" node2="18"/>
                <iidm:bus v="126.11516169634987" angle="-24.84318150153565" nodes="0,1,2,3,4,5,6,7,8,9,10,11,12,13,14,15,16,17,18,19,20,21,22,23,24,25,26,27,28,29,30,31,32,33,34,35,36,37,38,39,40,41,42,43,44,45,46,47,48,49,50,51,52,53,54,55,56,57,58,59,60,61,62,63"/>
            </iidm:nodeBreakerTopology>
            <iidm:generator id="_046c3ee7-c766-11e1-8775-005056c00008" name="Torrey SM" energySource="THERMAL" minP="20" maxP="80" ratedS="100" voltageRegulatorOn="true" targetP="48" targetV="126.06" targetQ="0" node="21" p="-53.443335831167396" q="-29.927400216349941">
                <iidm:alias>_047147f3-c766-11e1-8775-005056c00008</iidm:alias>
                <iidm:property name="CGMES.GeneratingUnit" value="_b97aee41-3115-4cfd-9071-b52fb44d0b66"/>
                <iidm:property name="CGMES.RegulatingControl" value="_5005c073-28d1-4a7d-b257-649dec43ec73"/>
                <iidm:property name="CGMES.normalPF" value="0.0"/>
                <iidm:minMaxReactiveLimits minQ="-30" maxQ="85"/>
            </iidm:generator>
            <iidm:load id="_044afb44-c766-11e1-8775-005056c00008" name="Torrey LD" loadType="UNDEFINED" p0="113" q0="32" node="20" p="112.99999999999999" q="32">
                <iidm:alias>_04522737-c766-11e1-8775-005056c00008</iidm:alias>
            </iidm:load>
        </iidm:voltageLevel>
    </iidm:substation>
    <iidm:substation id="_045de701-c766-11e1-8775-005056c00008" name="Needlehole" country="GB" geographicalTags="_0472a781-c766-11e1-8775-005056c00008">
        <iidm:voltageLevel id="_04808a33-c766-11e1-8775-005056c00008" name="NEE132KV" nominalV="132" topologyKind="NODE_BREAKER">
            <iidm:nodeBreakerTopology>
                <iidm:busbarSection id="_0cc691b0-b444-4cef-a706-56fa421d444e" name="BUSBAR98" node="7">
                    <iidm:alias>_ebdae831-2ebe-4c64-96e1-7b91aa2db64a</iidm:alias>
                </iidm:busbarSection>
                <iidm:switch id="_82a2c0de-02c4-48cf-a2bc-43c3b43f70c5" name="BREAKER204" kind="BREAKER" retained="false" open="false" node1="9" node2="10">
                    <iidm:alias>_4a799c07-5afc-43ce-b6e5-07bf3ed01299</iidm:alias>
                    <iidm:alias>_d447f6d1-7ced-4a18-b489-a848ecdd8f26</iidm:alias>
                </iidm:switch>
                <iidm:switch id="_467e0941-4ce6-41ca-9c73-fc30a3a465d2" name="BREAKER276" kind="BREAKER" retained="false" open="false" node1="11" node2="12">
                    <iidm:alias>_2003d398-4989-457f-96d2-1d171aaa3496</iidm:alias>
                    <iidm:alias>_434f488b-72ac-43d7-ad91-7397a8d1064f</iidm:alias>
                </iidm:switch>
                <iidm:switch id="_67d15e4f-3211-47ca-a162-20bc863f456a" name="DISCONNECTOR407" kind="DISCONNECTOR" retained="false" open="false" node1="13" node2="14">
                    <iidm:alias>_2acc7925-5dc1-4c32-a264-f384326d40b2</iidm:alias>
                    <iidm:alias>_f8c17ac3-19ad-4a74-8105-be69ace57902</iidm:alias>
                </iidm:switch>
                <iidm:switch id="_9a54d4bb-318a-4594-accd-f73e0717c332" name="DISCONNECTOR408" kind="DISCONNECTOR" retained="false" open="false" node1="15" node2="16">
                    <iidm:alias>_23e5c5af-5021-486f-9313-ced0a3c0f78e</iidm:alias>
                    <iidm:alias>_30418a78-e345-4166-be71-c6811a5139a9</iidm:alias>
                </iidm:switch>
                <iidm:switch id="_3a73abc8-c136-4d48-8b72-ccf7c89b569e" name="DISCONNECTOR551" kind="DISCONNECTOR" retained="false" open="false" node1="17" node2="18">
                    <iidm:alias>_1ac3075d-b630-4f72-9637-9e0d639eea21</iidm:alias>
                    <iidm:alias>_443d1b23-9393-4b67-9596-b24170a7715e</iidm:alias>
                </iidm:switch>
                <iidm:switch id="_f7396260-dcb7-4643-8440-4c22300245ef" name="DISCONNECTOR552" kind="DISCONNECTOR" retained="false" open="false" node1="19" node2="20">
                    <iidm:alias>_1e39401b-8a3e-45f5-9b9a-b23d200ded9c</iidm:alias>
                    <iidm:alias>_c24c6c8c-c3eb-4c10-9ed8-60b192b7e93d</iidm:alias>
                </iidm:switch>
                <iidm:internalConnection node1="7" node2="0"/>
                <iidm:internalConnection node1="8" node2="0"/>
                <iidm:internalConnection node1="9" node2="1"/>
                <iidm:internalConnection node1="10" node2="2"/>
                <iidm:internalConnection node1="11" node2="4"/>
                <iidm:internalConnection node1="12" node2="5"/>
                <iidm:internalConnection node1="13" node2="0"/>
                <iidm:internalConnection node1="14" node2="1"/>
                <iidm:internalConnection node1="15" node2="2"/>
                <iidm:internalConnection node1="16" node2="3"/>
                <iidm:internalConnection node1="17" node2="0"/>
                <iidm:internalConnection node1="18" node2="4"/>
                <iidm:internalConnection node1="19" node2="5"/>
                <iidm:internalConnection node1="20" node2="6"/>
                <iidm:internalConnection node1="21" node2="3"/>
                <iidm:internalConnection node1="22" node2="6"/>
                <iidm:bus v="123.93812572668863" angle="-1.9739843411538611" nodes="0,1,2,3,4,5,6,7,8,9,10,11,12,13,14,15,16,17,18,19,20,21,22"/>
            </iidm:nodeBreakerTopology>
            <iidm:load id="_04481515-c766-11e1-8775-005056c00008" name="Darrah LD" loadType="UNDEFINED" p0="68" q0="36" node="8" p="68" q="36">
                <iidm:alias>_044e7db8-c766-11e1-8775-005056c00008</iidm:alias>
            </iidm:load>
        </iidm:voltageLevel>
    </iidm:substation>
    <iidm:substation id="_0472f5a8-c766-11e1-8775-005056c00008" name="Dale" country="GB" geographicalTags="_0472a781-c766-11e1-8775-005056c00008">
        <iidm:voltageLevel id="_0467d214-c766-11e1-8775-005056c00008" name="DAL132KV" nominalV="132" topologyKind="NODE_BREAKER">
            <iidm:nodeBreakerTopology>
                <iidm:busbarSection id="_e1c67091-cbc6-497d-815a-e471f5482904" name="BUSBAR16" node="7">
                    <iidm:alias>_708aaaa8-e7c6-443b-8285-91504fe45b76</iidm:alias>
                </iidm:busbarSection>
                <iidm:switch id="_8345da91-c150-4265-922d-5308fdc44671" name="BREAKER18" kind="BREAKER" retained="false" open="false" node1="9" node2="10">
                    <iidm:alias>_1c0edefe-d42e-4966-ad5a-f120620ea284</iidm:alias>
                    <iidm:alias>_fc6df484-0741-4f53-81e2-6e70cfd5a853</iidm:alias>
                </iidm:switch>
                <iidm:switch id="_cd883edc-c0de-417b-b378-06b106f94a05" name="BREAKER147" kind="BREAKER" retained="false" open="false" node1="11" node2="12">
                    <iidm:alias>_abcf9ee5-7753-4307-9a56-b119fdd62d94</iidm:alias>
                    <iidm:alias>_ec950292-2658-44d0-94e1-7ab461b27707</iidm:alias>
                </iidm:switch>
                <iidm:switch id="_9f9a1601-96ee-495f-9f88-e5b1e439d9d0" name="DISCONNECTOR35" kind="DISCONNECTOR" retained="false" open="false" node1="13" node2="14">
                    <iidm:alias>_b3ae708b-6f42-425e-8dd5-00d6daadb551</iidm:alias>
                    <iidm:alias>_c8cc8b9c-5b5b-4b4a-8610-03d974c74739</iidm:alias>
                </iidm:switch>
                <iidm:switch id="_39312527-1286-4662-9cf5-c5e3cae10de6" name="DISCONNECTOR36" kind="DISCONNECTOR" retained="false" open="false" node1="15" node2="16">
                    <iidm:alias>_67785dbe-ab63-4618-8737-6150fce2c56c</iidm:alias>
                    <iidm:alias>_a3f499c2-f337-43b0-9b6f-5849b58eb1c5</iidm:alias>
                </iidm:switch>
                <iidm:switch id="_e4c9a7e6-05c0-4b9d-bfb7-f0df1a033d94" name="DISCONNECTOR293" kind="DISCONNECTOR" retained="false" open="false" node1="17" node2="18">
                    <iidm:alias>_91a822b7-c670-4873-8a6c-60b180b100ef</iidm:alias>
                    <iidm:alias>_a8db43a7-acd3-42a5-a4f9-31bb793ebc41</iidm:alias>
                </iidm:switch>
                <iidm:switch id="_15685edb-292c-4afd-ae2a-40d35a35ed21" name="DISCONNECTOR294" kind="DISCONNECTOR" retained="false" open="false" node1="19" node2="20">
                    <iidm:alias>_9feceb23-85e1-43cc-b4a2-c3e2465caa9b</iidm:alias>
                    <iidm:alias>_e2a8c3fd-df2f-4963-8b4b-a55141d2956d</iidm:alias>
                </iidm:switch>
                <iidm:internalConnection node1="7" node2="0"/>
                <iidm:internalConnection node1="8" node2="0"/>
                <iidm:internalConnection node1="9" node2="1"/>
                <iidm:internalConnection node1="10" node2="2"/>
                <iidm:internalConnection node1="11" node2="4"/>
                <iidm:internalConnection node1="12" node2="5"/>
                <iidm:internalConnection node1="13" node2="0"/>
                <iidm:internalConnection node1="14" node2="1"/>
                <iidm:internalConnection node1="15" node2="2"/>
                <iidm:internalConnection node1="16" node2="3"/>
                <iidm:internalConnection node1="17" node2="0"/>
                <iidm:internalConnection node1="18" node2="4"/>
                <iidm:internalConnection node1="19" node2="5"/>
                <iidm:internalConnection node1="20" node2="6"/>
                <iidm:internalConnection node1="21" node2="3"/>
                <iidm:internalConnection node1="22" node2="6"/>
                <iidm:bus v="130.54365128657929" angle="13.036930050104411" nodes="0,1,2,3,4,5,6,7,8,9,10,11,12,13,14,15,16,17,18,19,20,21,22"/>
            </iidm:nodeBreakerTopology>
            <iidm:load id="_044c0cb3-c766-11e1-8775-005056c00008" name="Smythe LD" loadType="UNDEFINED" p0="5" q0="3" node="8" p="5" q="3">
                <iidm:alias>_045163e8-c766-11e1-8775-005056c00008</iidm:alias>
            </iidm:load>
        </iidm:voltageLevel>
    </iidm:substation>
    <iidm:substation id="_047a48a3-c766-11e1-8775-005056c00008" name="Hogsmeade" country="GB" geographicalTags="_0472a781-c766-11e1-8775-005056c00008">
        <iidm:voltageLevel id="_047e675c-c766-11e1-8775-005056c00008" name="HOG132KV" nominalV="132" topologyKind="NODE_BREAKER">
            <iidm:nodeBreakerTopology>
                <iidm:busbarSection id="_46c2d252-ea98-4750-8ae4-7831fb0acaf1" name="BUSBAR49" node="19">
                    <iidm:alias>_d7c5c0d1-9a22-4edd-8bdc-386f781bce15</iidm:alias>
                </iidm:busbarSection>
                <iidm:switch id="_a21110ce-7fe9-4dc1-b2d3-cf4704ca6c84" name="BREAKER63" kind="BREAKER" retained="false" open="false" node1="21" node2="22">
                    <iidm:alias>_96cdf652-f2ac-4e90-b56f-1cfdd4c21cdd</iidm:alias>
                    <iidm:alias>_c94db8fe-c4a3-4178-af77-d688d8a64408</iidm:alias>
                </iidm:switch>
                <iidm:switch id="_7417b3f0-f39a-4da3-ad99-a0c5acd31dfe" name="BREAKER191" kind="BREAKER" retained="false" open="false" node1="23" node2="24">
                    <iidm:alias>_029a4186-6f37-475f-b0b2-d4888ec78456</iidm:alias>
                    <iidm:alias>_7bf60b21-3cfd-4c15-92be-de3bf3987969</iidm:alias>
                </iidm:switch>
                <iidm:switch id="_0de34ed6-5f54-4d96-b85c-f9cef605702a" name="BREAKER246" kind="BREAKER" retained="false" open="false" node1="25" node2="26">
                    <iidm:alias>_3231c97c-9430-4350-8fa2-291f9293ff8e</iidm:alias>
                    <iidm:alias>_bcc360a4-e0de-4270-b3e3-2c0729527a63</iidm:alias>
                </iidm:switch>
                <iidm:switch id="_b901fad0-2935-4ad2-8c60-ca6f514d7ff6" name="BREAKER299" kind="BREAKER" retained="false" open="false" node1="27" node2="28">
                    <iidm:alias>_3c82adf2-700c-4e2d-8783-691c7eb0739e</iidm:alias>
                    <iidm:alias>_43fc3f67-b589-46aa-9a14-df1c38f536bf</iidm:alias>
                </iidm:switch>
                <iidm:switch id="_68ca1c46-e3bc-4281-a44c-882106869b58" name="BREAKER330" kind="BREAKER" retained="false" open="false" node1="29" node2="30">
                    <iidm:alias>_081ff2d8-2c7f-4dea-b78a-d67d6abc4db8</iidm:alias>
                    <iidm:alias>_eb554827-e2b3-4174-8618-2fac9fb13cae</iidm:alias>
                </iidm:switch>
                <iidm:switch id="_8feab797-7f0e-4657-8282-79c8b499523a" name="BREAKER340" kind="BREAKER" retained="false" open="false" node1="31" node2="32">
                    <iidm:alias>_39748ac4-8994-41ef-86ad-aa593876e300</iidm:alias>
                    <iidm:alias>_a5838d0b-841c-4085-876f-1356e29461b2</iidm:alias>
                </iidm:switch>
                <iidm:switch id="_57a5e5f7-befc-4422-8f0e-26335a11c5ae" name="DISCONNECTOR125" kind="DISCONNECTOR" retained="false" open="false" node1="33" node2="34">
                    <iidm:alias>_2f3318d5-eccc-45de-9579-2f989e144c9d</iidm:alias>
                    <iidm:alias>_daba953d-958b-4002-a3d8-ee9944bfd07d</iidm:alias>
                </iidm:switch>
                <iidm:switch id="_cc8b7ccf-7888-4967-aed6-eb5d343179f2" name="DISCONNECTOR126" kind="DISCONNECTOR" retained="false" open="false" node1="35" node2="36">
                    <iidm:alias>_29113799-f271-4951-a18f-ac987e0e09a0</iidm:alias>
                    <iidm:alias>_89fe4a5c-784c-484c-8337-9768c6689f7c</iidm:alias>
                </iidm:switch>
                <iidm:switch id="_5d90700a-b751-46d6-9883-1afa754ca728" name="DISCONNECTOR381" kind="DISCONNECTOR" retained="false" open="false" node1="37" node2="38">
                    <iidm:alias>_0551774b-ab93-4cf6-9afc-3f49ff2e5339</iidm:alias>
                    <iidm:alias>_2ee00881-e663-4ef8-8e61-5a9d373b60eb</iidm:alias>
                </iidm:switch>
                <iidm:switch id="_6857768a-9ce5-4491-856d-121d10953832" name="DISCONNECTOR382" kind="DISCONNECTOR" retained="false" open="false" node1="39" node2="40">
                    <iidm:alias>_3ebe2830-5530-45ee-bca1-03f80a144de1</iidm:alias>
                    <iidm:alias>_45b979e1-6499-4853-8bae-ee72dab68308</iidm:alias>
                </iidm:switch>
                <iidm:switch id="_7c3cd7e7-115d-4869-91a6-70bd2e8a0879" name="DISCONNECTOR491" kind="DISCONNECTOR" retained="false" open="false" node1="41" node2="42">
                    <iidm:alias>_1b134ce8-e167-4933-b483-9abc85f82a68</iidm:alias>
                    <iidm:alias>_b82f01d0-3f3a-4fbd-9a3f-98a1e954e09d</iidm:alias>
                </iidm:switch>
                <iidm:switch id="_4aa7d6c9-5036-4a5c-bafb-8aacb7e07fc7" name="DISCONNECTOR492" kind="DISCONNECTOR" retained="false" open="false" node1="43" node2="44">
                    <iidm:alias>_0da489a8-37d1-42fa-b44a-5ca3ec46da01</iidm:alias>
                    <iidm:alias>_36da5543-1c92-4034-9537-b7236c3523f9</iidm:alias>
                </iidm:switch>
                <iidm:switch id="_f60585d4-e1ef-457a-85d5-a0cc458b1138" name="DISCONNECTOR597" kind="DISCONNECTOR" retained="false" open="false" node1="45" node2="46">
                    <iidm:alias>_f20a0e2f-0b05-403c-981a-8b622394964e</iidm:alias>
                    <iidm:alias>_f4f6fa4a-f388-4aca-a526-4034b8eaa0f6</iidm:alias>
                </iidm:switch>
                <iidm:switch id="_d2c51b1a-fe39-428c-8e64-d34cca938997" name="DISCONNECTOR598" kind="DISCONNECTOR" retained="false" open="false" node1="47" node2="48">
                    <iidm:alias>_a18a8468-b108-467a-865a-cc01df943616</iidm:alias>
                    <iidm:alias>_afe375c5-fa11-4fff-8684-c4c3797d88aa</iidm:alias>
                </iidm:switch>
                <iidm:switch id="_e0203b79-c207-44ec-a455-1076786151ea" name="DISCONNECTOR659" kind="DISCONNECTOR" retained="false" open="false" node1="49" node2="50">
                    <iidm:alias>_2957eef7-ef17-4284-8b72-885290a5d4c2</iidm:alias>
                    <iidm:alias>_82bd5ada-01e6-4702-b2bc-43685a564dca</iidm:alias>
                </iidm:switch>
                <iidm:switch id="_8be185ca-2d62-4f9c-8e1e-caab88cc2025" name="DISCONNECTOR660" kind="DISCONNECTOR" retained="false" open="false" node1="51" node2="52">
                    <iidm:alias>_9664ae2d-68fa-4059-9ffb-473fe2c0cd86</iidm:alias>
                    <iidm:alias>_d02ad0d1-25fe-4737-9c11-d7409abb063b</iidm:alias>
                </iidm:switch>
                <iidm:switch id="_65e01f10-db8a-405d-96f2-ecb2436ea1bb" name="DISCONNECTOR679" kind="DISCONNECTOR" retained="false" open="false" node1="53" node2="54">
                    <iidm:alias>_173fb145-6c85-4837-8c26-642a031183cb</iidm:alias>
                    <iidm:alias>_486326b9-4614-40ef-b499-57360c1454e3</iidm:alias>
                </iidm:switch>
                <iidm:switch id="_ce8a387e-0ea0-425c-ac7a-1e5dbe93e6f8" name="DISCONNECTOR680" kind="DISCONNECTOR" retained="false" open="false" node1="55" node2="56">
                    <iidm:alias>_28e4a7ba-04a3-4c8e-9d98-9b47f86b7ec9</iidm:alias>
                    <iidm:alias>_66238552-d9de-4b1b-9b46-7f3d2f028039</iidm:alias>
                </iidm:switch>
                <iidm:internalConnection node1="19" node2="0"/>
                <iidm:internalConnection node1="20" node2="0"/>
                <iidm:internalConnection node1="21" node2="1"/>
                <iidm:internalConnection node1="22" node2="2"/>
                <iidm:internalConnection node1="23" node2="4"/>
                <iidm:internalConnection node1="24" node2="5"/>
                <iidm:internalConnection node1="25" node2="7"/>
                <iidm:internalConnection node1="26" node2="8"/>
                <iidm:internalConnection node1="27" node2="10"/>
                <iidm:internalConnection node1="28" node2="11"/>
                <iidm:internalConnection node1="29" node2="13"/>
                <iidm:internalConnection node1="30" node2="14"/>
                <iidm:internalConnection node1="31" node2="16"/>
                <iidm:internalConnection node1="32" node2="17"/>
                <iidm:internalConnection node1="33" node2="0"/>
                <iidm:internalConnection node1="34" node2="1"/>
                <iidm:internalConnection node1="35" node2="2"/>
                <iidm:internalConnection node1="36" node2="3"/>
                <iidm:internalConnection node1="37" node2="0"/>
                <iidm:internalConnection node1="38" node2="4"/>
                <iidm:internalConnection node1="39" node2="5"/>
                <iidm:internalConnection node1="40" node2="6"/>
                <iidm:internalConnection node1="41" node2="0"/>
                <iidm:internalConnection node1="42" node2="7"/>
                <iidm:internalConnection node1="43" node2="8"/>
                <iidm:internalConnection node1="44" node2="9"/>
                <iidm:internalConnection node1="45" node2="0"/>
                <iidm:internalConnection node1="46" node2="10"/>
                <iidm:internalConnection node1="47" node2="11"/>
                <iidm:internalConnection node1="48" node2="12"/>
                <iidm:internalConnection node1="49" node2="0"/>
                <iidm:internalConnection node1="50" node2="13"/>
                <iidm:internalConnection node1="51" node2="14"/>
                <iidm:internalConnection node1="52" node2="15"/>
                <iidm:internalConnection node1="53" node2="0"/>
                <iidm:internalConnection node1="54" node2="16"/>
                <iidm:internalConnection node1="55" node2="17"/>
                <iidm:internalConnection node1="56" node2="18"/>
                <iidm:internalConnection node1="57" node2="3"/>
                <iidm:internalConnection node1="58" node2="6"/>
                <iidm:internalConnection node1="59" node2="9"/>
                <iidm:internalConnection node1="60" node2="12"/>
                <iidm:internalConnection node1="61" node2="15"/>
                <iidm:internalConnection node1="62" node2="18"/>
                <iidm:bus v="125.83334534578387" angle="-24.945531054583206" nodes="0,1,2,3,4,5,6,7,8,9,10,11,12,13,14,15,16,17,18,19,20,21,22,23,24,25,26,27,28,29,30,31,32,33,34,35,36,37,38,39,40,41,42,43,44,45,46,47,48,49,50,51,52,53,54,55,56,57,58,59,60,61,62"/>
            </iidm:nodeBreakerTopology>
            <iidm:load id="_0450a093-c766-11e1-8775-005056c00008" name="Sunnysde LD" loadType="UNDEFINED" p0="84" q0="18" node="20" p="84" q="18">
                <iidm:alias>_045f4695-c766-11e1-8775-005056c00008</iidm:alias>
            </iidm:load>
        </iidm:voltageLevel>
    </iidm:substation>
    <iidm:substation id="_046f4c23-c766-11e1-8775-005056c00008" name="Barad-dûr" country="GB" geographicalTags="_0472a781-c766-11e1-8775-005056c00008">
        <iidm:voltageLevel id="_047dcb11-c766-11e1-8775-005056c00008" name="BAR132KV" nominalV="132" topologyKind="NODE_BREAKER">
            <iidm:nodeBreakerTopology>
                <iidm:busbarSection id="_875a0e56-f468-47ea-8240-0d5b8f8ad6db" name="BUSBAR69" node="7">
                    <iidm:alias>_eef57a7f-1b38-43a9-a2a1-88d1d43c41ff</iidm:alias>
                </iidm:busbarSection>
                <iidm:switch id="_f02a089b-51ec-46fe-ae11-2aab8b340bd4" name="BREAKER89" kind="BREAKER" retained="false" open="false" node1="10" node2="11">
                    <iidm:alias>_571fbb8c-c22f-464a-a009-75887e5265cc</iidm:alias>
                    <iidm:alias>_b9574069-9cdb-498c-80b6-bacf8e33d6d3</iidm:alias>
                </iidm:switch>
                <iidm:switch id="_47e98763-4205-4c3f-9fca-580e6716eb93" name="BREAKER278" kind="BREAKER" retained="false" open="false" node1="12" node2="13">
                    <iidm:alias>_3f46dacd-ec53-47a3-9ad0-e69d01af2a32</iidm:alias>
                    <iidm:alias>_7c51871b-8c97-4823-8108-47c7d756d416</iidm:alias>
                </iidm:switch>
                <iidm:switch id="_4957a875-6ba5-46ca-9ebc-5842f66e92f4" name="DISCONNECTOR177" kind="DISCONNECTOR" retained="false" open="false" node1="14" node2="15">
                    <iidm:alias>_2e8d3533-e650-41e8-ba9b-36b5ec94aadc</iidm:alias>
                    <iidm:alias>_5b51b1dc-b52b-4d98-ae80-713d27ba53bd</iidm:alias>
                </iidm:switch>
                <iidm:switch id="_b54015ba-0d13-4c36-861e-13d092f9307d" name="DISCONNECTOR178" kind="DISCONNECTOR" retained="false" open="false" node1="16" node2="17">
                    <iidm:alias>_4190d3e0-bea8-4b68-a705-a1359a5b8022</iidm:alias>
                    <iidm:alias>_70f67e88-6aa3-4155-953d-51300aefea7d</iidm:alias>
                </iidm:switch>
                <iidm:switch id="_0adb0e5d-57dd-4b49-9fb6-4b542a78e281" name="DISCONNECTOR555" kind="DISCONNECTOR" retained="false" open="false" node1="18" node2="19">
                    <iidm:alias>_f55d08b5-1ce5-462f-b19d-7e59303c7055</iidm:alias>
                    <iidm:alias>_fc722a0a-b5d9-4c9d-b2c6-aa57aa347267</iidm:alias>
                </iidm:switch>
                <iidm:switch id="_73252c52-15f1-4024-8dd3-b7f5c081e5b4" name="DISCONNECTOR556" kind="DISCONNECTOR" retained="false" open="false" node1="20" node2="21">
                    <iidm:alias>_3c7306cd-aaf6-4452-bf95-aa1b65184654</iidm:alias>
                    <iidm:alias>_5422d93f-8f56-4ece-b98d-d6bfdacfbced</iidm:alias>
                </iidm:switch>
                <iidm:switch id="InternalAsBreaker_shunt" name="MYBREAKER" kind="BREAKER" retained="true" open="false" node1="9" node2="0"/>
                <iidm:internalConnection node1="7" node2="0"/>
                <iidm:internalConnection node1="8" node2="0"/>
                <iidm:internalConnection node1="10" node2="1"/>
                <iidm:internalConnection node1="11" node2="2"/>
                <iidm:internalConnection node1="12" node2="4"/>
                <iidm:internalConnection node1="13" node2="5"/>
                <iidm:internalConnection node1="14" node2="0"/>
                <iidm:internalConnection node1="15" node2="1"/>
                <iidm:internalConnection node1="16" node2="2"/>
                <iidm:internalConnection node1="17" node2="3"/>
                <iidm:internalConnection node1="18" node2="0"/>
                <iidm:internalConnection node1="19" node2="4"/>
                <iidm:internalConnection node1="20" node2="5"/>
                <iidm:internalConnection node1="21" node2="6"/>
                <iidm:internalConnection node1="22" node2="3"/>
                <iidm:internalConnection node1="23" node2="6"/>
                <iidm:bus v="126.9276880141868" angle="-2.3814265748286325" nodes="0,1,2,3,4,5,6,7,8,9,10,11,12,13,14,15,16,17,18,19,20,21,22,23"/>
            </iidm:nodeBreakerTopology>
            <iidm:load id="_044b2251-c766-11e1-8775-005056c00008" name="Bellefnt LD" loadType="UNDEFINED" p0="68" q0="27" node="8" p="68" q="27">
                <iidm:alias>_04622cc1-c766-11e1-8775-005056c00008</iidm:alias>
            </iidm:load>
            <iidm:shunt id="_0449e9d5-c766-11e1-8775-005056c00008" name="Bellefnt SC" sectionCount="5" voltageRegulatorOn="true" targetV="126.40300000000001" targetDeadband="1" node="9" q="-11.100229571407823">
                <iidm:alias>_047bcf48-c766-11e1-8775-005056c00008</iidm:alias>
                <iidm:property name="CGMES.RegulatingControl" value="_6cc38790-c6a6-4309-99f4-a3258e24e785"/>
                <iidm:shuntLinearModel bPerSection="0.00013779999999999999" gPerSection="0" maximumSectionCount="10"/>
            </iidm:shunt>
        </iidm:voltageLevel>
    </iidm:substation>
    <iidm:substation id="_047a6fb6-c766-11e1-8775-005056c00008" name="Waymoot" country="GB" geographicalTags="_0472a781-c766-11e1-8775-005056c00008">
        <iidm:voltageLevel id="_04740714-c766-11e1-8775-005056c00008" name="WAY132KV" nominalV="132" topologyKind="NODE_BREAKER">
            <iidm:nodeBreakerTopology>
                <iidm:busbarSection id="_f5fbf026-6931-4e8c-a529-567893d696a8" name="BUSBAR52" node="13">
                    <iidm:alias>_d612c351-c679-4e42-929d-30dabcf165ed</iidm:alias>
                </iidm:busbarSection>
                <iidm:switch id="_e03205d7-a924-40f9-a3de-2b83f1e37bc2" name="BREAKER67" kind="BREAKER" retained="false" open="false" node1="16" node2="17">
                    <iidm:alias>_84fb84e7-ad1f-4124-8c51-051ac93c5a14</iidm:alias>
                    <iidm:alias>_ca1f1508-11df-4d70-82af-061d2ca91351</iidm:alias>
                </iidm:switch>
                <iidm:switch id="_6b142fa1-1890-4e15-9044-a1c3910f6538" name="BREAKER126" kind="BREAKER" retained="false" open="false" node1="18" node2="19">
                    <iidm:alias>_27c3357b-8a1b-4130-bad2-fc753b66ec3d</iidm:alias>
                    <iidm:alias>_fad1e6b7-5f14-4853-a74b-6677b5c0719e</iidm:alias>
                </iidm:switch>
                <iidm:switch id="_2ef59be7-e550-41c2-ad9f-a4e7fae6d3fc" name="BREAKER253" kind="BREAKER" retained="false" open="false" node1="20" node2="21">
                    <iidm:alias>_0ec6ef57-cfcb-47d1-b38b-6ca3220c5e02</iidm:alias>
                    <iidm:alias>_42fbeebc-27b3-457f-b780-23328d760a14</iidm:alias>
                </iidm:switch>
                <iidm:switch id="_87c006b7-bb18-4a80-80da-0eb053d7b15a" name="BREAKER329" kind="BREAKER" retained="false" open="false" node1="22" node2="23">
                    <iidm:alias>_5f276409-96e1-405c-9e75-4d9fccc8bf87</iidm:alias>
                    <iidm:alias>_a01662c5-96de-418f-91a5-b16db1b66c81</iidm:alias>
                </iidm:switch>
                <iidm:switch id="_3e983c04-7dae-4061-9233-f5654965744b" name="DISCONNECTOR133" kind="DISCONNECTOR" retained="false" open="false" node1="24" node2="25">
                    <iidm:alias>_06343fcd-f7cd-463d-9be4-e945953fd82e</iidm:alias>
                    <iidm:alias>_547bd475-13fe-483a-8458-71d3c783493c</iidm:alias>
                </iidm:switch>
                <iidm:switch id="_9fa2e723-ed6d-4a1f-858b-423dabe74184" name="DISCONNECTOR134" kind="DISCONNECTOR" retained="false" open="false" node1="26" node2="27">
                    <iidm:alias>_af9a95ae-eb9a-4491-a957-2829445d67a5</iidm:alias>
                    <iidm:alias>_c1fa02e8-02f0-456a-b06c-ccd75879889a</iidm:alias>
                </iidm:switch>
                <iidm:switch id="_f9024f22-f8e8-447b-875b-4ca9b01d799b" name="DISCONNECTOR251" kind="DISCONNECTOR" retained="false" open="false" node1="28" node2="29">
                    <iidm:alias>_6e3ba0a3-59cf-4d02-8c5d-e5a6846a0eb0</iidm:alias>
                    <iidm:alias>_e6611048-9b76-4265-b03c-75500718c097</iidm:alias>
                </iidm:switch>
                <iidm:switch id="_255ca98c-c55c-4369-8358-031e6aae3279" name="DISCONNECTOR252" kind="DISCONNECTOR" retained="false" open="false" node1="30" node2="31">
                    <iidm:alias>_a94aefe0-21b4-462d-aff6-7aa79d6af0ab</iidm:alias>
                    <iidm:alias>_b627ac26-6fab-4f5b-b08a-f0bc8281227a</iidm:alias>
                </iidm:switch>
                <iidm:switch id="_a878ee53-c51e-4a70-a80a-fb13a8db928b" name="DISCONNECTOR505" kind="DISCONNECTOR" retained="false" open="false" node1="32" node2="33">
                    <iidm:alias>_7ccf1734-7ea4-4030-b8ee-7a82d958edc4</iidm:alias>
                    <iidm:alias>_8657f8e9-55a2-4388-a722-de31eec99cef</iidm:alias>
                </iidm:switch>
                <iidm:switch id="_2c4ee866-a65f-4f9e-8d76-0a085de8e748" name="DISCONNECTOR506" kind="DISCONNECTOR" retained="false" open="false" node1="34" node2="35">
                    <iidm:alias>_0cb1e098-2473-44ba-8ace-88063372e452</iidm:alias>
                    <iidm:alias>_20979194-0a0e-4f2f-8f25-8612d79fb907</iidm:alias>
                </iidm:switch>
                <iidm:switch id="_ebe2f330-1adb-431a-aeee-4a6a21167603" name="DISCONNECTOR657" kind="DISCONNECTOR" retained="false" open="false" node1="36" node2="37">
                    <iidm:alias>_18a57444-1e35-48a3-a599-55c7a6e7af15</iidm:alias>
                    <iidm:alias>_4c70b357-5014-42b6-a0ee-fec1c2469a8a</iidm:alias>
                </iidm:switch>
                <iidm:switch id="_bfc273d8-d57c-4ca6-a117-69a5e0ecb2d6" name="DISCONNECTOR658" kind="DISCONNECTOR" retained="false" open="false" node1="38" node2="39">
                    <iidm:alias>_034ec4b5-bd8c-4a92-99a2-1f730be3f002</iidm:alias>
                    <iidm:alias>_392cef6c-b0ef-4cb7-a61b-d92b77e1f8b7</iidm:alias>
                </iidm:switch>
                <iidm:internalConnection node1="13" node2="0"/>
                <iidm:internalConnection node1="14" node2="0"/>
                <iidm:internalConnection node1="15" node2="0"/>
                <iidm:internalConnection node1="16" node2="1"/>
                <iidm:internalConnection node1="17" node2="2"/>
                <iidm:internalConnection node1="18" node2="4"/>
                <iidm:internalConnection node1="19" node2="5"/>
                <iidm:internalConnection node1="20" node2="7"/>
                <iidm:internalConnection node1="21" node2="8"/>
                <iidm:internalConnection node1="22" node2="10"/>
                <iidm:internalConnection node1="23" node2="11"/>
                <iidm:internalConnection node1="24" node2="0"/>
                <iidm:internalConnection node1="25" node2="1"/>
                <iidm:internalConnection node1="26" node2="2"/>
                <iidm:internalConnection node1="27" node2="3"/>
                <iidm:internalConnection node1="28" node2="0"/>
                <iidm:internalConnection node1="29" node2="4"/>
                <iidm:internalConnection node1="30" node2="5"/>
                <iidm:internalConnection node1="31" node2="6"/>
                <iidm:internalConnection node1="32" node2="0"/>
                <iidm:internalConnection node1="33" node2="7"/>
                <iidm:internalConnection node1="34" node2="8"/>
                <iidm:internalConnection node1="35" node2="9"/>
                <iidm:internalConnection node1="36" node2="0"/>
                <iidm:internalConnection node1="37" node2="10"/>
                <iidm:internalConnection node1="38" node2="11"/>
                <iidm:internalConnection node1="39" node2="12"/>
                <iidm:internalConnection node1="40" node2="3"/>
                <iidm:internalConnection node1="41" node2="6"/>
                <iidm:internalConnection node1="42" node2="9"/>
                <iidm:internalConnection node1="43" node2="12"/>
                <iidm:bus v="126.1256624163675" angle="-1.2878860130976384" nodes="0,1,2,3,4,5,6,7,8,9,10,11,12,13,14,15,16,17,18,19,20,21,22,23,24,25,26,27,28,29,30,31,32,33,34,35,36,37,38,39,40,41,42,43"/>
            </iidm:nodeBreakerTopology>
            <iidm:load id="_04682035-c766-11e1-8775-005056c00008" name="Fieldale LD" loadType="UNDEFINED" p0="39" q0="30" node="14" p="39" q="30">
                <iidm:alias>_0478c20a-c766-11e1-8775-005056c00008</iidm:alias>
            </iidm:load>
            <iidm:shunt id="_045c6067-c766-11e1-8775-005056c00008" name="Fieldale SC" sectionCount="5" voltageRegulatorOn="true" targetV="126.066" targetDeadband="1" node="15" q="-5.472242855668819">
                <iidm:alias>_0451b209-c766-11e1-8775-005056c00008</iidm:alias>
                <iidm:property name="CGMES.RegulatingControl" value="_2d222dd9-7306-4afd-baa5-fd303b0eeb40"/>
                <iidm:shuntLinearModel bPerSection="6.8800000000000005e-05" gPerSection="0" maximumSectionCount="10"/>
            </iidm:shunt>
        </iidm:voltageLevel>
    </iidm:substation>
    <iidm:substation id="_0488eea9-c766-11e1-8775-005056c00008" name="Upbourn" country="GB" geographicalTags="_0472a781-c766-11e1-8775-005056c00008">
        <iidm:voltageLevel id="_047147f4-c766-11e1-8775-005056c00008" name="UPB132KV" nominalV="132" topologyKind="NODE_BREAKER">
            <iidm:nodeBreakerTopology>
                <iidm:busbarSection id="_4b8e48d8-4125-49af-b80e-91069742fe1d" name="BUSBAR21" node="16">
                    <iidm:alias>_c57369e1-70f0-4ab7-ab95-0ca6d1d20b00</iidm:alias>
                </iidm:busbarSection>
                <iidm:switch id="_40021451-2f6c-4c08-8206-0f9577efbc02" name="BREAKER24" kind="BREAKER" retained="false" open="false" node1="19" node2="20">
                    <iidm:alias>_159809cd-32b7-4d81-bdc3-f4521a5611dc</iidm:alias>
                    <iidm:alias>_53df2bde-0065-4e2a-8f79-8b9887289cb5</iidm:alias>
                </iidm:switch>
                <iidm:switch id="_59a28b95-3bb8-45b4-a0dc-93bf57a4621a" name="BREAKER53" kind="BREAKER" retained="false" open="false" node1="21" node2="22">
                    <iidm:alias>_53fd4b3d-190c-44fa-a4da-a06af831ee73</iidm:alias>
                    <iidm:alias>_f7eb7cd9-22bc-4182-9ace-4a7283dee574</iidm:alias>
                </iidm:switch>
                <iidm:switch id="_f829f61b-477f-45d8-b5a4-cb19a3097682" name="BREAKER203" kind="BREAKER" retained="false" open="false" node1="23" node2="24">
                    <iidm:alias>_a4b700d6-4419-4e60-96d4-f054f596ebb9</iidm:alias>
                    <iidm:alias>_a700bfb5-accf-4acc-aef6-75b5b4b9d283</iidm:alias>
                </iidm:switch>
                <iidm:switch id="_c98ae667-4b00-438c-a4e8-11eaac1449fe" name="BREAKER345" kind="BREAKER" retained="false" open="false" node1="25" node2="26">
                    <iidm:alias>_768736df-6aba-4013-a7fe-5a4d2415efc7</iidm:alias>
                    <iidm:alias>_aa48cfef-d128-4b07-a145-71146779f621</iidm:alias>
                </iidm:switch>
                <iidm:switch id="_5f1203b6-43c0-44bf-ba48-25564bbefef9" name="BREAKER359" kind="BREAKER" retained="false" open="true" node1="27" node2="28">
                    <iidm:alias>_563b8841-aa4b-4bf2-a54f-8f069829f070</iidm:alias>
                    <iidm:alias>_57a42edc-5e05-4604-b596-f01ab114f5c1</iidm:alias>
                </iidm:switch>
                <iidm:switch id="_10cb7e56-91ea-41b4-9698-9ed591d4a610" name="DISCONNECTOR47" kind="DISCONNECTOR" retained="false" open="false" node1="29" node2="30">
                    <iidm:alias>_9b54615f-86ab-42fd-a7b6-091f420c6185</iidm:alias>
                    <iidm:alias>_f05307b2-779f-4931-ab27-1c812eec0e09</iidm:alias>
                </iidm:switch>
                <iidm:switch id="_ffb2763c-86ee-422c-ad01-19a27c2f5d95" name="DISCONNECTOR48" kind="DISCONNECTOR" retained="false" open="false" node1="31" node2="32">
                    <iidm:alias>_82d50004-0240-44a0-946b-1136ce73ca33</iidm:alias>
                    <iidm:alias>_da880e10-59e4-42f9-88ad-bb19fd0995df</iidm:alias>
                </iidm:switch>
                <iidm:switch id="_c7bfbf56-b417-4d5d-969e-2dc60af24f55" name="DISCONNECTOR105" kind="DISCONNECTOR" retained="false" open="false" node1="33" node2="34">
                    <iidm:alias>_a66aa870-a14d-4ebe-98fb-56dadc7cad89</iidm:alias>
                    <iidm:alias>_aaa9f9d2-61a4-48c4-8b74-9f1cea3dcf19</iidm:alias>
                </iidm:switch>
                <iidm:switch id="_f7ba9ee4-7854-4f0a-8527-e67110d01ca7" name="DISCONNECTOR106" kind="DISCONNECTOR" retained="false" open="false" node1="35" node2="36">
                    <iidm:alias>_4442b941-d4d5-4ca7-bb8d-5a427f0e3821</iidm:alias>
                    <iidm:alias>_83bd7a12-4fbd-4219-b9f2-8a70e5d36a69</iidm:alias>
                </iidm:switch>
                <iidm:switch id="_80564bd9-c46d-48a3-9ee0-fe1d044715b0" name="DISCONNECTOR405" kind="DISCONNECTOR" retained="false" open="false" node1="37" node2="38">
                    <iidm:alias>_470d84cc-b496-47b1-997a-3bc5b2898568</iidm:alias>
                    <iidm:alias>_cefd7b3b-3bc8-414c-af54-efef4551a90c</iidm:alias>
                </iidm:switch>
                <iidm:switch id="_6572c581-24a4-47a9-a39e-74085116d4f8" name="DISCONNECTOR406" kind="DISCONNECTOR" retained="false" open="false" node1="39" node2="40">
                    <iidm:alias>_6c319766-eb32-4975-8ef4-5ec8b325c3d3</iidm:alias>
...